AeroDyn airfoil file Created with QBlade CE v 2.0.6.4_beta windows on 22.05.2024 at 06:41:02 Compatible with AeroDyn v13.0.
Polar "NACA_63-215_Re3.000_M0.00_N9.0" on Foil "NACA 63-215" :: generated by QBlade
1              Number of airfoil tables in this file
0              Table ID parameter
20.00          Stall angle (deg)
0              No longer used, enter zero
0              No longer used, enter zero
0              No longer used, enter zero
-1.51          Angle of attack for zero Cn for linear Cn curve (deg)
6.67506        Cn slope for zero lift for linear Cn curve (1/rad)
1.0265         Cn at stall value for positive angle of attack for linear Cn curve
-0.9734        Cn at stall value for negative angle of attack for linear Cn curve
-0.50          Angle of attack for minimum CD (deg)
0.0047         Minimum CD value
   -15.000 -1.159200  0.022350 -0.068500
   -14.500 -1.144100  0.020600 -0.065700
   -14.000 -1.128900  0.019070 -0.062500
   -13.500 -1.107300  0.017870 -0.059400
   -13.000 -1.088800  0.016680 -0.055800
   -12.500 -1.057500  0.015630 -0.054100
   -12.000 -1.048000  0.014610 -0.048200
   -11.500 -1.058600  0.013880 -0.037700
   -11.000 -1.027400  0.013080 -0.034300
   -10.500 -0.987700  0.012430 -0.032200
   -10.000 -0.941300  0.011860 -0.031100
    -9.500 -0.893400  0.011270 -0.030300
    -9.000 -0.843600  0.010780 -0.029800
    -8.500 -0.791700  0.010320 -0.029600
    -8.000 -0.738300  0.009870 -0.029600
    -7.500 -0.684100  0.009480 -0.029700
    -7.000 -0.629400  0.009140 -0.029900
    -6.500 -0.574000  0.008730 -0.030200
    -5.500 -0.461900  0.007930 -0.031100
    -5.000 -0.404500  0.007760 -0.031600
    -4.500 -0.346800  0.007510 -0.032300
    -4.000 -0.288900  0.007230 -0.032900
    -3.500 -0.231400  0.006850 -0.033700
    -3.000 -0.174200  0.006360 -0.034500
    -2.500 -0.116000  0.006010 -0.035300
    -2.000 -0.057700  0.005470 -0.036400
    -1.500  0.000700  0.005000 -0.037400
    -1.000  0.059500  0.004880 -0.038200
    -0.500  0.118200  0.004740 -0.039100
     0.000  0.176900  0.004770 -0.039800
     0.500  0.235500  0.004820 -0.040600
     1.000  0.293300  0.005040 -0.041200
     1.500  0.349700  0.005420 -0.041700
     2.000  0.405200  0.005940 -0.042200
     2.500  0.459500  0.006620 -0.042400
     3.500  0.568200  0.007680 -0.042800
     4.000  0.621400  0.008240 -0.042700
     4.500  0.676300  0.008590 -0.042900
     5.000  0.731200  0.008900 -0.043000
     5.500  0.782500  0.009450 -0.042600
     6.000  0.834800  0.009850 -0.042300
     6.500  0.887000  0.010230 -0.041900
     7.000  0.938200  0.010610 -0.041500
     7.500  0.987500  0.011030 -0.040700
     8.000  1.035000  0.011500 -0.039600
     8.500  1.080000  0.012030 -0.038100
     9.000  1.121500  0.012560 -0.036000
     9.500  1.157200  0.013140 -0.032900
    10.000  1.168900  0.013710 -0.025300
    10.500  1.178500  0.014490 -0.018000
    11.000  1.188600  0.015530 -0.011600
    11.500  1.197200  0.016460 -0.004900
    12.000  1.212900  0.017840 -0.000700
    12.500  1.222200  0.019610  0.004000
    13.000  1.234200  0.021530  0.007900
    13.500  1.239400  0.023960  0.011900
    14.000  1.240400  0.026860  0.015500
    14.500  1.245800  0.029700  0.018500
    15.000  1.240100  0.033640  0.021200
    15.500  1.230700  0.038320  0.023300
    16.000  1.251300  0.040810  0.023900
    16.500  1.274100  0.043210  0.024300
    17.000  1.281200  0.047230  0.024400
    17.500  1.301200  0.050080  0.024400
    18.000  1.303500  0.054940  0.023700
    18.500  1.329200  0.057430  0.023200
    19.000  1.344200  0.061100  0.022500
    20.000  1.350400  0.072070  0.019100
    20.500  1.337600  0.080220  0.015700
    21.000  1.345300  0.085490  0.013400
    24.500  0.921600  0.226210 -0.066900
    25.000  0.928300  0.231250 -0.070500
    25.500  0.917900  0.240570 -0.075400
    26.000  0.933700  0.243440 -0.078200
    26.500  0.944800  0.247550 -0.081500
    27.500  0.910400  0.273950 -0.092500
